/*--------------------------------*- C++ -*----------------------------------*\
| =========                 |                                                 |
| \\      /  F ield         | OpenFOAM: The Open Source CFD Toolbox           |
|  \\    /   O peration     | Version:  2.0.0                                 |
|   \\  /    A nd           | Web:      www.OpenFOAM.com                      |
|    \\/     M anipulation  |                                                 |
\*---------------------------------------------------------------------------*/
FoamFile
{
    version     2.0;
    format      ascii;
    class       featureEdgeMesh;
    location    "constant/triSurface";
    object      airfoil.eMesh;
}
// * * * * * * * * * * * * * * * * * * * * * * * * * * * * * * * * * * * * * //


// points:

3996
(
(0.996195 1 -0.0871553)
(0.996195 -1 -0.0871553)
(0 1 0)
(3.2958e-05 1 0.000348347)
(-2.80321e-05 1 -0.000348778)
(7.0801e-05 1 0.000695796)
(0.000113529 1 0.00104235)
(0.000161142 1 0.001388)
(0.000213639 1 0.00173275)
(0.00027102 1 0.0020766)
(0.000333285 1 0.00241955)
(0.000400433 1 0.00276159)
(0.000472464 1 0.00310273)
(0.000549378 1 0.00344297)
(0.000631173 1 0.0037823)
(0.000717849 1 0.00412072)
(0.000809406 1 0.00445823)
(0.000905843 1 0.00479483)
(0.00100716 1 0.00513053)
(0.00111335 1 0.0054653)
(0.00122442 1 0.00579917)
(0.00134037 1 0.00613212)
(0.00146119 1 0.00646415)
(0.00158689 1 0.00679526)
(0.00171746 1 0.00712545)
(0.00185291 1 0.00745473)
(0.00199322 1 0.00778308)
(0.0021384 1 0.0081105)
(0.00228846 1 0.008437)
(0.00244338 1 0.00876258)
(0.00260316 1 0.00908722)
(0.00276781 1 0.00941094)
(0.00293732 1 0.00973372)
(0.0031117 1 0.0100556)
(0.00329093 1 0.0103765)
(0.00347502 1 0.0106965)
(0.00366397 1 0.0110155)
(0.00385777 1 0.0113336)
(0.00405642 1 0.0116507)
(0.00425993 1 0.011967)
(0.00446828 1 0.0122822)
(0.00468148 1 0.0125965)
(0.00489953 1 0.0129099)
(0.00512242 1 0.0132223)
(0.00535015 1 0.0135337)
(0.00558272 1 0.0138442)
(0.00582013 1 0.0141538)
(0.00606237 1 0.0144624)
(0.00630944 1 0.01477)
(0.00656134 1 0.0150767)
(0.00681807 1 0.0153823)
(0.00707962 1 0.0156871)
(0.007346 1 0.0159908)
(0.00761719 1 0.0162936)
(0.0078932 1 0.0165954)
(0.00817403 1 0.0168962)
(0.00845967 1 0.017196)
(0.00875011 1 0.0174949)
(0.00904537 1 0.0177928)
(0.00934542 1 0.0180897)
(0.00965028 1 0.0183856)
(0.00995993 1 0.0186805)
(0.0102744 1 0.0189744)
(0.0105936 1 0.0192673)
(0.0109176 1 0.0195592)
(0.0112465 1 0.0198501)
(0.01158 1 0.02014)
(0.0119184 1 0.0204289)
(0.0122616 1 0.0207168)
(0.0126095 1 0.0210037)
(0.0129622 1 0.0212896)
(0.0133196 1 0.0215744)
(0.0136818 1 0.0218583)
(0.0140488 1 0.0221411)
(0.0144205 1 0.0224228)
(0.014797 1 0.0227036)
(0.0151782 1 0.0229833)
(0.0155642 1 0.023262)
(0.0159549 1 0.0235396)
(0.0163503 1 0.0238163)
(0.0167505 1 0.0240918)
(0.0171554 1 0.0243664)
(0.017565 1 0.0246398)
(0.0179794 1 0.0249123)
(0.0183984 1 0.0251836)
(0.0188222 1 0.0254539)
(0.0192507 1 0.0257232)
(0.0196838 1 0.0259914)
(0.0201217 1 0.0262585)
(0.0205643 1 0.0265246)
(0.0210115 1 0.0267896)
(0.0214635 1 0.0270535)
(0.0219201 1 0.0273164)
(0.0223814 1 0.0275781)
(0.0228474 1 0.0278388)
(0.023318 1 0.0280984)
(0.0237933 1 0.0283569)
(0.0242733 1 0.0286143)
(0.0247579 1 0.0288706)
(0.0252471 1 0.0291258)
(0.025741 1 0.02938)
(0.0262396 1 0.029633)
(0.0267427 1 0.0298849)
(0.0272505 1 0.0301357)
(0.0277629 1 0.0303853)
(0.02828 1 0.0306339)
(0.0288016 1 0.0308813)
(0.0293279 1 0.0311277)
(0.0298587 1 0.0313728)
(0.0303942 1 0.0316169)
(0.0309343 1 0.0318598)
(0.0314789 1 0.0321016)
(0.0320281 1 0.0323423)
(0.0325819 1 0.0325818)
(0.0331402 1 0.0328201)
(0.0337032 1 0.0330574)
(0.0342706 1 0.0332934)
(0.0348427 1 0.0335283)
(0.0354193 1 0.033762)
(0.0360004 1 0.0339946)
(0.036586 1 0.034226)
(0.0371762 1 0.0344563)
(0.0377709 1 0.0346854)
(0.0383701 1 0.0349132)
(0.0389739 1 0.03514)
(0.0395821 1 0.0353655)
(0.0401948 1 0.0355898)
(0.0408121 1 0.035813)
(0.0414338 1 0.036035)
(0.04206 1 0.0362557)
(0.0426907 1 0.0364753)
(0.0433258 1 0.0366937)
(0.0439654 1 0.0369108)
(0.0446094 1 0.0371268)
(0.045258 1 0.0373415)
(0.0459109 1 0.037555)
(0.0465683 1 0.0377674)
(0.0472301 1 0.0379784)
(0.0478963 1 0.0381883)
(0.048567 1 0.0383969)
(0.049242 1 0.0386043)
(0.0499215 1 0.0388105)
(0.0506053 1 0.0390154)
(0.0512936 1 0.0392191)
(0.0519862 1 0.0394215)
(0.0526832 1 0.0396226)
(0.0533846 1 0.0398226)
(0.0540903 1 0.0400212)
(0.0548004 1 0.0402187)
(0.0555148 1 0.0404148)
(0.0562335 1 0.0406097)
(0.0569566 1 0.0408033)
(0.0576841 1 0.0409956)
(0.0584158 1 0.0411867)
(0.0591518 1 0.0413765)
(0.0598922 1 0.041565)
(0.0606368 1 0.0417522)
(0.0613858 1 0.0419381)
(0.062139 1 0.0421228)
(0.0628964 1 0.0423061)
(0.0636582 1 0.0424882)
(0.0644242 1 0.0426689)
(0.0651944 1 0.0428483)
(0.0659689 1 0.0430265)
(0.0667477 1 0.0432033)
(0.0675306 1 0.0433788)
(0.0683178 1 0.043553)
(0.0691092 1 0.0437258)
(0.0699047 1 0.0438974)
(0.0707045 1 0.0440676)
(0.0715085 1 0.0442365)
(0.0723166 1 0.044404)
(0.0731289 1 0.0445702)
(0.0739454 1 0.0447351)
(0.074766 1 0.0448987)
(0.0755908 1 0.0450608)
(0.0764197 1 0.0452217)
(0.0772527 1 0.0453812)
(0.0780899 1 0.0455393)
(0.0789312 1 0.0456961)
(0.0797765 1 0.0458515)
(0.080626 1 0.0460055)
(0.0814796 1 0.0461582)
(0.0823372 1 0.0463095)
(0.0831989 1 0.0464595)
(0.0840647 1 0.046608)
(0.0849345 1 0.0467552)
(0.0858083 1 0.046901)
(0.0866862 1 0.0470455)
(0.0875681 1 0.0471885)
(0.0884541 1 0.0473302)
(0.089344 1 0.0474704)
(0.090238 1 0.0476093)
(0.0911359 1 0.0477468)
(0.0920378 1 0.0478828)
(0.0929437 1 0.0480175)
(0.0938535 1 0.0481507)
(0.0947673 1 0.0482826)
(0.0956851 1 0.048413)
(0.0966068 1 0.048542)
(0.0975324 1 0.0486697)
(0.0984619 1 0.0487958)
(0.0993953 1 0.0489206)
(0.100333 1 0.049044)
(0.101274 1 0.0491659)
(0.102219 1 0.0492864)
(0.103168 1 0.0494054)
(0.104121 1 0.0495231)
(0.105077 1 0.0496393)
(0.106038 1 0.049754)
(0.107002 1 0.0498673)
(0.10797 1 0.0499792)
(0.108943 1 0.0500896)
(0.109918 1 0.0501986)
(0.110898 1 0.0503062)
(0.111881 1 0.0504122)
(0.112868 1 0.0505169)
(0.113859 1 0.05062)
(0.114854 1 0.0507218)
(0.115852 1 0.050822)
(0.116854 1 0.0509208)
(0.11786 1 0.0510181)
(0.11887 1 0.051114)
(0.119883 1 0.0512084)
(0.1209 1 0.0513013)
(0.121921 1 0.0513928)
(0.122945 1 0.0514828)
(0.123973 1 0.0515713)
(0.125005 1 0.0516583)
(0.12604 1 0.0517439)
(0.127079 1 0.0518279)
(0.128122 1 0.0519105)
(0.129168 1 0.0519916)
(0.130217 1 0.0520713)
(0.131271 1 0.0521494)
(0.132328 1 0.052226)
(0.133388 1 0.0523012)
(0.134452 1 0.0523749)
(0.13552 1 0.052447)
(0.136591 1 0.0525177)
(0.137666 1 0.0525869)
(0.138744 1 0.0526545)
(0.139826 1 0.0527207)
(0.140911 1 0.0527854)
(0.141999 1 0.0528486)
(0.143092 1 0.0529103)
(0.144187 1 0.0529705)
(0.145286 1 0.0530291)
(0.146389 1 0.0530863)
(0.147495 1 0.053142)
(0.148604 1 0.0531961)
(0.149717 1 0.0532487)
(0.150833 1 0.0532999)
(0.151953 1 0.0533495)
(0.153076 1 0.0533976)
(0.154202 1 0.0534442)
(0.155331 1 0.0534893)
(0.156464 1 0.0535328)
(0.157601 1 0.0535749)
(0.15874 1 0.0536154)
(0.159883 1 0.0536544)
(0.16103 1 0.0536919)
(0.162179 1 0.0537279)
(0.163332 1 0.0537624)
(0.164488 1 0.0537953)
(0.165647 1 0.0538268)
(0.16681 1 0.0538567)
(0.167975 1 0.0538851)
(0.169144 1 0.0539119)
(0.170317 1 0.0539373)
(0.171492 1 0.0539611)
(0.17267 1 0.0539834)
(0.173852 1 0.0540042)
(0.175037 1 0.0540234)
(0.176225 1 0.0540411)
(0.177416 1 0.0540573)
(0.178611 1 0.054072)
(0.179808 1 0.0540852)
(0.181009 1 0.0540969)
(0.182212 1 0.054107)
(0.183419 1 0.0541156)
(0.184629 1 0.0541226)
(0.185841 1 0.0541282)
(0.187057 1 0.0541322)
(0.188276 1 0.0541347)
(0.189498 1 0.0541357)
(0.190723 1 0.0541352)
(0.191951 1 0.0541331)
(0.193181 1 0.0541296)
(0.194415 1 0.0541245)
(0.195652 1 0.0541179)
(0.196892 1 0.0541097)
(0.198134 1 0.0541001)
(0.19938 1 0.0540889)
(0.200628 1 0.0540762)
(0.20188 1 0.054062)
(0.203134 1 0.0540463)
(0.204391 1 0.0540291)
(0.205651 1 0.0540103)
(0.206914 1 0.0539901)
(0.208179 1 0.0539683)
(0.209448 1 0.053945)
(0.210719 1 0.0539202)
(0.211993 1 0.0538939)
(0.21327 1 0.0538661)
(0.214549 1 0.0538368)
(0.215832 1 0.053806)
(0.217117 1 0.0537736)
(0.218405 1 0.0537398)
(0.219695 1 0.0537045)
(0.220988 1 0.0536676)
(0.222284 1 0.0536293)
(0.223583 1 0.0535894)
(0.224884 1 0.0535481)
(0.226188 1 0.0535053)
(0.227495 1 0.0534609)
(0.228804 1 0.0534151)
(0.230116 1 0.0533678)
(0.23143 1 0.053319)
(0.232747 1 0.0532687)
(0.234067 1 0.053217)
(0.235389 1 0.0531637)
(0.236714 1 0.053109)
(0.238041 1 0.0530527)
(0.239371 1 0.052995)
(0.240703 1 0.0529359)
(0.242038 1 0.0528752)
(0.243375 1 0.0528131)
(0.244715 1 0.0527495)
(0.246057 1 0.0526844)
(0.247402 1 0.0526179)
(0.248749 1 0.0525499)
(0.250099 1 0.0524804)
(0.251451 1 0.0524095)
(0.252805 1 0.0523371)
(0.254162 1 0.0522633)
(0.255521 1 0.052188)
(0.256882 1 0.0521112)
(0.258246 1 0.052033)
(0.259612 1 0.0519534)
(0.26098 1 0.0518723)
(0.262351 1 0.0517898)
(0.263724 1 0.0517058)
(0.265099 1 0.0516204)
(0.266477 1 0.0515336)
(0.267857 1 0.0514453)
(0.269239 1 0.0513556)
(0.270623 1 0.0512645)
(0.27201 1 0.0511719)
(0.273398 1 0.051078)
(0.274789 1 0.0509826)
(0.276182 1 0.0508858)
(0.277577 1 0.0507876)
(0.278975 1 0.0506879)
(0.280374 1 0.0505869)
(0.281776 1 0.0504845)
(0.283179 1 0.0503806)
(0.284585 1 0.0502754)
(0.285993 1 0.0501688)
(0.287402 1 0.0500608)
(0.288814 1 0.0499514)
(0.290228 1 0.0498406)
(0.291644 1 0.0497284)
(0.293062 1 0.0496149)
(0.294482 1 0.0495)
(0.295904 1 0.0493837)
(0.297328 1 0.049266)
(0.298753 1 0.049147)
(0.300181 1 0.0490266)
(0.301611 1 0.0489049)
(0.303042 1 0.0487817)
(0.304476 1 0.0486573)
(0.305911 1 0.0485315)
(0.307348 1 0.0484044)
(0.308787 1 0.0482759)
(0.310228 1 0.0481461)
(0.311671 1 0.0480149)
(0.313115 1 0.0478825)
(0.314562 1 0.0477487)
(0.31601 1 0.0476136)
(0.31746 1 0.0474771)
(0.318911 1 0.0473394)
(0.320365 1 0.0472003)
(0.32182 1 0.0470599)
(0.323276 1 0.0469183)
(0.324735 1 0.0467753)
(0.326195 1 0.0466311)
(0.327657 1 0.0464855)
(0.32912 1 0.0463387)
(0.330585 1 0.0461906)
(0.332052 1 0.0460412)
(0.33352 1 0.0458905)
(0.33499 1 0.0457386)
(0.336462 1 0.0455854)
(0.337934 1 0.045431)
(0.339409 1 0.0452752)
(0.340885 1 0.0451183)
(0.342363 1 0.0449601)
(0.343842 1 0.0448006)
(0.345323 1 0.0446399)
(0.346805 1 0.044478)
(0.348288 1 0.0443149)
(0.349773 1 0.0441505)
(0.35126 1 0.0439849)
(0.352748 1 0.0438181)
(0.354237 1 0.04365)
(0.355728 1 0.0434808)
(0.35722 1 0.0433104)
(0.358713 1 0.0431387)
(0.360208 1 0.0429659)
(0.361704 1 0.0427919)
(0.363202 1 0.0426167)
(0.3647 1 0.0424403)
(0.366201 1 0.0422627)
(0.367702 1 0.042084)
(0.369204 1 0.0419041)
(0.370708 1 0.041723)
(0.372213 1 0.0415408)
(0.37372 1 0.0413575)
(0.375227 1 0.041173)
(0.376736 1 0.0409873)
(0.378246 1 0.0408005)
(0.379757 1 0.0406126)
(0.381269 1 0.0404236)
(0.382782 1 0.0402334)
(0.384296 1 0.0400421)
(0.385812 1 0.0398497)
(0.387329 1 0.0396562)
(0.388846 1 0.0394616)
(0.390365 1 0.0392659)
(0.391885 1 0.0390691)
(0.393405 1 0.0388713)
(0.394927 1 0.0386723)
(0.39645 1 0.0384723)
(0.397974 1 0.0382712)
(0.399498 1 0.038069)
(0.401024 1 0.0378658)
(0.402551 1 0.0376615)
(0.404078 1 0.0374562)
(0.405607 1 0.0372498)
(0.407136 1 0.0370424)
(0.408666 1 0.0368339)
(0.410197 1 0.0366244)
(0.411729 1 0.0364139)
(0.413262 1 0.0362024)
(0.414796 1 0.0359899)
(0.41633 1 0.0357763)
(0.417865 1 0.0355618)
(0.419401 1 0.0353462)
(0.420938 1 0.0351297)
(0.422476 1 0.0349122)
(0.424014 1 0.0346937)
(0.425553 1 0.0344742)
(0.427092 1 0.0342537)
(0.428633 1 0.0340323)
(0.430174 1 0.0338099)
(0.431715 1 0.0335866)
(0.433257 1 0.0333623)
(0.4348 1 0.0331371)
(0.436344 1 0.032911)
(0.437888 1 0.0326839)
(0.439433 1 0.0324558)
(0.440978 1 0.0322269)
(0.442524 1 0.0319971)
(0.44407 1 0.0317663)
(0.445617 1 0.0315346)
(0.447164 1 0.031302)
(0.448712 1 0.0310686)
(0.45026 1 0.0308342)
(0.451809 1 0.030599)
(0.453358 1 0.0303629)
(0.454908 1 0.0301259)
(0.456458 1 0.0298881)
(0.458009 1 0.0296494)
(0.459559 1 0.0294098)
(0.461111 1 0.0291694)
(0.462662 1 0.0289282)
(0.464214 1 0.0286861)
(0.465766 1 0.0284432)
(0.467319 1 0.0281994)
(0.468872 1 0.0279549)
(0.470425 1 0.0277095)
(0.471978 1 0.0274633)
(0.473532 1 0.0272163)
(0.475086 1 0.0269685)
(0.47664 1 0.02672)
(0.478194 1 0.0264706)
(0.479749 1 0.0262205)
(0.481303 1 0.0259696)
(0.482858 1 0.0257179)
(0.484413 1 0.0254654)
(0.485968 1 0.0252122)
(0.487523 1 0.0249583)
(0.489079 1 0.0247036)
(0.490634 1 0.0244481)
(0.49219 1 0.0241919)
(0.493745 1 0.023935)
(0.495301 1 0.0236774)
(0.496856 1 0.0234191)
(0.498412 1 0.02316)
(0.499967 1 0.0229002)
(0.501523 1 0.0226398)
(0.503079 1 0.0223786)
(0.504634 1 0.0221168)
(0.506189 1 0.0218543)
(0.507745 1 0.0215911)
(0.5093 1 0.0213272)
(0.510855 1 0.0210626)
(0.51241 1 0.0207975)
(0.513965 1 0.0205316)
(0.51552 1 0.0202651)
(0.517074 1 0.019998)
(0.518628 1 0.0197302)
(0.520182 1 0.0194618)
(0.521736 1 0.0191927)
(0.52329 1 0.0189231)
(0.524844 1 0.0186528)
(0.526397 1 0.0183819)
(0.52795 1 0.0181105)
(0.529502 1 0.0178384)
(0.531054 1 0.0175657)
(0.532606 1 0.0172925)
(0.534158 1 0.0170187)
(0.535709 1 0.0167443)
(0.53726 1 0.0164693)
(0.53881 1 0.0161938)
(0.540361 1 0.0159177)
(0.54191 1 0.0156411)
(0.543459 1 0.0153639)
(0.545008 1 0.0150862)
(0.546557 1 0.0148079)
(0.548105 1 0.0145291)
(0.549652 1 0.0142498)
(0.551199 1 0.01397)
(0.552745 1 0.0136897)
(0.554291 1 0.0134089)
(0.555836 1 0.0131276)
(0.557381 1 0.0128457)
(0.558925 1 0.0125634)
(0.560469 1 0.0122807)
(0.562011 1 0.0119974)
(0.563554 1 0.0117137)
(0.565095 1 0.0114295)
(0.566636 1 0.0111448)
(0.568177 1 0.0108597)
(0.569716 1 0.0105742)
(0.571255 1 0.0102882)
(0.572794 1 0.0100017)
(0.574331 1 0.00971488)
(0.575868 1 0.00942759)
(0.577404 1 0.00913989)
(0.578939 1 0.00885178)
(0.580473 1 0.00856326)
(0.582007 1 0.00827433)
(0.58354 1 0.00798501)
(0.585072 1 0.0076953)
(0.586603 1 0.00740521)
(0.588133 1 0.00711473)
(0.589663 1 0.00682389)
(0.591191 1 0.00653267)
(0.592719 1 0.00624109)
(0.594245 1 0.00594916)
(0.595771 1 0.00565687)
(0.597296 1 0.00536424)
(0.59882 1 0.00507127)
(0.600342 1 0.00477797)
(0.601864 1 0.00448433)
(0.603385 1 0.00419038)
(0.604905 1 0.0038961)
(0.606423 1 0.00360152)
(0.607941 1 0.00330662)
(0.609458 1 0.00301143)
(0.610973 1 0.00271594)
(0.612488 1 0.00242016)
(0.614001 1 0.0021241)
(0.615513 1 0.00182776)
(0.617024 1 0.00153114)
(0.618534 1 0.00123426)
(0.620043 1 0.000937111)
(0.62155 1 0.000639709)
(0.623056 1 0.000342055)
(0.624562 1 4.41551e-05)
(0.626065 1 -0.000253985)
(0.627568 1 -0.00055236)
(0.629069 1 -0.000850965)
(0.630569 1 -0.00114979)
(0.632068 1 -0.00144884)
(0.633565 1 -0.0017481)
(0.635062 1 -0.00204757)
(0.636556 1 -0.00234724)
(0.63805 1 -0.00264711)
(0.639542 1 -0.00294716)
(0.641033 1 -0.00324741)
(0.642522 1 -0.00354783)
(0.64401 1 -0.00384844)
(0.645496 1 -0.00414921)
(0.646981 1 -0.00445014)
(0.648465 1 -0.00475124)
(0.649947 1 -0.00505249)
(0.651428 1 -0.00535388)
(0.652907 1 -0.00565542)
(0.654384 1 -0.0059571)
(0.65586 1 -0.00625891)
(0.657335 1 -0.00656085)
(0.658808 1 -0.00686291)
(0.660279 1 -0.00716508)
(0.661749 1 -0.00746737)
(0.663217 1 -0.00776976)
(0.664684 1 -0.00807226)
(0.666149 1 -0.00837484)
(0.667613 1 -0.00867752)
(0.669074 1 -0.00898029)
(0.670534 1 -0.00928313)
(0.671993 1 -0.00958605)
(0.673449 1 -0.00988904)
(0.674904 1 -0.0101921)
(0.676358 1 -0.0104952)
(0.677809 1 -0.0107984)
(0.679259 1 -0.0111016)
(0.680707 1 -0.0114048)
(0.682153 1 -0.0117081)
(0.683598 1 -0.0120114)
(0.68504 1 -0.0123148)
(0.686481 1 -0.0126182)
(0.68792 1 -0.0129216)
(0.689357 1 -0.013225)
(0.690792 1 -0.0135284)
(0.692225 1 -0.0138318)
(0.693657 1 -0.0141352)
(0.695086 1 -0.0144386)
(0.696514 1 -0.014742)
(0.69794 1 -0.0150454)
(0.699363 1 -0.0153487)
(0.700785 1 -0.015652)
(0.702205 1 -0.0159553)
(0.703623 1 -0.0162585)
(0.705039 1 -0.0165617)
(0.706452 1 -0.0168649)
(0.707864 1 -0.017168)
(0.709274 1 -0.017471)
(0.710681 1 -0.017774)
(0.712087 1 -0.0180769)
(0.71349 1 -0.0183797)
(0.714892 1 -0.0186824)
(0.716291 1 -0.0189851)
(0.717688 1 -0.0192877)
(0.719083 1 -0.0195901)
(0.720476 1 -0.0198925)
(0.721867 1 -0.0201948)
(0.723255 1 -0.0204969)
(0.724642 1 -0.020799)
(0.726026 1 -0.0211009)
(0.727407 1 -0.0214027)
(0.728787 1 -0.0217044)
(0.730164 1 -0.0220059)
(0.731539 1 -0.0223073)
(0.732912 1 -0.0226086)
(0.734283 1 -0.0229097)
(0.735651 1 -0.0232106)
(0.737017 1 -0.0235114)
(0.73838 1 -0.023812)
(0.739742 1 -0.0241125)
(0.741101 1 -0.0244127)
(0.742457 1 -0.0247128)
(0.743811 1 -0.0250128)
(0.745163 1 -0.0253125)
(0.746512 1 -0.025612)
(0.747859 1 -0.0259113)
(0.749204 1 -0.0262105)
(0.750546 1 -0.0265094)
(0.751885 1 -0.0268081)
(0.753222 1 -0.0271066)
(0.754557 1 -0.0274049)
(0.755889 1 -0.0277029)
(0.757218 1 -0.0280007)
(0.758545 1 -0.0282983)
(0.75987 1 -0.0285956)
(0.761192 1 -0.0288927)
(0.762511 1 -0.0291895)
(0.763828 1 -0.0294861)
(0.765142 1 -0.0297823)
(0.766454 1 -0.0300784)
(0.767763 1 -0.0303742)
(0.769069 1 -0.0306696)
(0.770373 1 -0.0309648)
(0.771674 1 -0.0312598)
(0.772972 1 -0.0315544)
(0.774268 1 -0.0318487)
(0.775561 1 -0.0321428)
(0.776851 1 -0.0324365)
(0.778139 1 -0.0327299)
(0.779423 1 -0.033023)
(0.780706 1 -0.0333158)
(0.781985 1 -0.0336083)
(0.783261 1 -0.0339004)
(0.784535 1 -0.0341922)
(0.785806 1 -0.0344836)
(0.787074 1 -0.0347748)
(0.78834 1 -0.0350655)
(0.789602 1 -0.0353559)
(0.790862 1 -0.035646)
(0.792119 1 -0.0359357)
(0.793373 1 -0.036225)
(0.794624 1 -0.036514)
(0.795872 1 -0.0368025)
(0.797117 1 -0.0370907)
(0.79836 1 -0.0373785)
(0.799599 1 -0.0376659)
(0.800835 1 -0.037953)
(0.802069 1 -0.0382396)
(0.803299 1 -0.0385258)
(0.804527 1 -0.0388116)
(0.805752 1 -0.039097)
(0.806973 1 -0.039382)
(0.808192 1 -0.0396665)
(0.809407 1 -0.0399507)
(0.81062 1 -0.0402343)
(0.811829 1 -0.0405176)
(0.813036 1 -0.0408004)
(0.814239 1 -0.0410828)
(0.815439 1 -0.0413647)
(0.816637 1 -0.0416461)
(0.817831 1 -0.0419272)
(0.819021 1 -0.0422077)
(0.820209 1 -0.0424877)
(0.821394 1 -0.0427673)
(0.822575 1 -0.0430464)
(0.823754 1 -0.0433251)
(0.824929 1 -0.0436032)
(0.826101 1 -0.0438808)
(0.82727 1 -0.044158)
(0.828435 1 -0.0444346)
(0.829597 1 -0.0447107)
(0.830756 1 -0.0449864)
(0.831912 1 -0.0452615)
(0.833065 1 -0.045536)
(0.834214 1 -0.0458101)
(0.83536 1 -0.0460836)
(0.836503 1 -0.0463566)
(0.837642 1 -0.0466291)
(0.838779 1 -0.046901)
(0.839911 1 -0.0471724)
(0.841041 1 -0.0474432)
(0.842167 1 -0.0477134)
(0.84329 1 -0.0479831)
(0.844409 1 -0.0482523)
(0.845525 1 -0.0485208)
(0.846638 1 -0.0487888)
(0.847747 1 -0.0490562)
(0.848853 1 -0.049323)
(0.849955 1 -0.0495892)
(0.851054 1 -0.0498548)
(0.85215 1 -0.0501199)
(0.853242 1 -0.0503843)
(0.85433 1 -0.0506481)
(0.855416 1 -0.0509113)
(0.856497 1 -0.051174)
(0.857575 1 -0.0514359)
(0.85865 1 -0.0516973)
(0.859721 1 -0.051958)
(0.860789 1 -0.0522181)
(0.861853 1 -0.0524775)
(0.862913 1 -0.0527363)
(0.86397 1 -0.0529945)
(0.865024 1 -0.053252)
(0.866073 1 -0.0535088)
(0.86712 1 -0.053765)
(0.868162 1 -0.0540205)
(0.869201 1 -0.0542754)
(0.870237 1 -0.0545296)
(0.871268 1 -0.0547831)
(0.872296 1 -0.0550359)
(0.873321 1 -0.055288)
(0.874342 1 -0.0555394)
(0.875359 1 -0.0557902)
(0.876372 1 -0.0560402)
(0.877382 1 -0.0562895)
(0.878388 1 -0.0565382)
(0.87939 1 -0.0567861)
(0.880389 1 -0.0570333)
(0.881384 1 -0.0572797)
(0.882375 1 -0.0575255)
(0.883362 1 -0.0577705)
(0.884346 1 -0.0580148)
(0.885326 1 -0.0582583)
(0.886302 1 -0.0585011)
(0.887274 1 -0.0587431)
(0.888243 1 -0.0589844)
(0.889208 1 -0.0592249)
(0.890169 1 -0.0594647)
(0.891126 1 -0.0597037)
(0.892079 1 -0.0599419)
(0.893028 1 -0.0601794)
(0.893974 1 -0.0604161)
(0.894916 1 -0.060652)
(0.895853 1 -0.0608871)
(0.896787 1 -0.0611214)
(0.897717 1 -0.0613549)
(0.898643 1 -0.0615876)
(0.899566 1 -0.0618195)
(0.900484 1 -0.0620506)
(0.901398 1 -0.0622809)
(0.902309 1 -0.0625104)
(0.903216 1 -0.062739)
(0.904118 1 -0.0629669)
(0.905017 1 -0.0631939)
(0.905911 1 -0.06342)
(0.906802 1 -0.0636453)
(0.907689 1 -0.0638698)
(0.908571 1 -0.0640934)
(0.90945 1 -0.0643162)
(0.910325 1 -0.0645382)
(0.911196 1 -0.0647592)
(0.912062 1 -0.0649794)
(0.912925 1 -0.0651988)
(0.913783 1 -0.0654172)
(0.914638 1 -0.0656348)
(0.915488 1 -0.0658515)
(0.916335 1 -0.0660674)
(0.917177 1 -0.0662823)
(0.918015 1 -0.0664963)
(0.918849 1 -0.0667095)
(0.919679 1 -0.0669217)
(0.920505 1 -0.0671331)
(0.921327 1 -0.0673435)
(0.922145 1 -0.0675531)
(0.922958 1 -0.0677617)
(0.923768 1 -0.0679694)
(0.924573 1 -0.0681761)
(0.925374 1 -0.068382)
(0.926171 1 -0.0685868)
(0.926964 1 -0.0687908)
(0.927752 1 -0.0689939)
(0.928536 1 -0.0691959)
(0.929317 1 -0.0693971)
(0.930093 1 -0.0695973)
(0.930864 1 -0.0697965)
(0.931632 1 -0.0699947)
(0.932395 1 -0.0701921)
(0.933154 1 -0.0703884)
(0.933909 1 -0.0705838)
(0.93466 1 -0.0707781)
(0.935406 1 -0.0709716)
(0.936148 1 -0.071164)
(0.936886 1 -0.0713554)
(0.937619 1 -0.0715459)
(0.938349 1 -0.0717354)
(0.939074 1 -0.0719238)
(0.939794 1 -0.0721113)
(0.940511 1 -0.0722977)
(0.941223 1 -0.0724832)
(0.94193 1 -0.0726676)
(0.942634 1 -0.072851)
(0.943333 1 -0.0730334)
(0.944027 1 -0.0732148)
(0.944718 1 -0.0733952)
(0.945404 1 -0.0735745)
(0.946086 1 -0.0737528)
(0.946763 1 -0.07393)
(0.947436 1 -0.0741062)
(0.948104 1 -0.0742814)
(0.948768 1 -0.0744555)
(0.949428 1 -0.0746285)
(0.950084 1 -0.0748006)
(0.950735 1 -0.0749715)
(0.951381 1 -0.0751414)
(0.952023 1 -0.0753102)
(0.952661 1 -0.0754779)
(0.953294 1 -0.0756446)
(0.953923 1 -0.0758102)
(0.954548 1 -0.0759747)
(0.955168 1 -0.0761381)
(0.955783 1 -0.0763005)
(0.956394 1 -0.0764617)
(0.957001 1 -0.0766219)
(0.957603 1 -0.076781)
(0.958201 1 -0.0769389)
(0.958794 1 -0.0770958)
(0.959382 1 -0.0772516)
(0.959966 1 -0.0774062)
(0.960546 1 -0.0775597)
(0.961121 1 -0.0777121)
(0.961692 1 -0.0778634)
(0.962258 1 -0.0780136)
(0.96282 1 -0.0781627)
(0.963377 1 -0.0783106)
(0.963929 1 -0.0784574)
(0.964477 1 -0.078603)
(0.965021 1 -0.0787476)
(0.96556 1 -0.0788909)
(0.966094 1 -0.0790332)
(0.966624 1 -0.0791743)
(0.967149 1 -0.0793142)
(0.96767 1 -0.079453)
(0.968186 1 -0.0795906)
(0.968698 1 -0.0797271)
(0.969205 1 -0.0798624)
(0.969707 1 -0.0799965)
(0.970205 1 -0.0801295)
(0.970698 1 -0.0802613)
(0.971187 1 -0.0803919)
(0.971671 1 -0.0805214)
(0.97215 1 -0.0806496)
(0.972625 1 -0.0807767)
(0.973095 1 -0.0809026)
(0.97356 1 -0.0810274)
(0.974021 1 -0.0811509)
(0.974477 1 -0.0812732)
(0.974929 1 -0.0813944)
(0.975376 1 -0.0815143)
(0.975818 1 -0.0816331)
(0.976256 1 -0.0817506)
(0.976689 1 -0.0818669)
(0.977117 1 -0.0819821)
(0.977541 1 -0.082096)
(0.97796 1 -0.0822087)
(0.978374 1 -0.0823202)
(0.978784 1 -0.0824305)
(0.979189 1 -0.0825395)
(0.979589 1 -0.0826473)
(0.979985 1 -0.0827539)
(0.980375 1 -0.0828593)
(0.980762 1 -0.0829635)
(0.981143 1 -0.0830664)
(0.98152 1 -0.0831681)
(0.981892 1 -0.0832685)
(0.982259 1 -0.0833677)
(0.982622 1 -0.0834657)
(0.98298 1 -0.0835624)
(0.983333 1 -0.0836579)
(0.983682 1 -0.0837521)
(0.984025 1 -0.0838451)
(0.984365 1 -0.0839368)
(0.984699 1 -0.0840273)
(0.985029 1 -0.0841165)
(0.985353 1 -0.0842045)
(0.985673 1 -0.0842912)
(0.985989 1 -0.0843767)
(0.986299 1 -0.0844608)
(0.986605 1 -0.0845437)
(0.986906 1 -0.0846254)
(0.987203 1 -0.0847058)
(0.987494 1 -0.0847849)
(0.987781 1 -0.0848627)
(0.988063 1 -0.0849393)
(0.98834 1 -0.0850146)
(0.988613 1 -0.0850886)
(0.988881 1 -0.0851613)
(0.989143 1 -0.0852328)
(0.989402 1 -0.0853029)
(0.989655 1 -0.0853718)
(0.989904 1 -0.0854394)
(0.990147 1 -0.0855057)
(0.990386 1 -0.0855708)
(0.990621 1 -0.0856345)
(0.99085 1 -0.0856969)
(0.991075 1 -0.0857581)
(0.991295 1 -0.0858179)
(0.991509 1 -0.0858765)
(0.99172 1 -0.0859338)
(0.991925 1 -0.0859897)
(0.992126 1 -0.0860444)
(0.992322 1 -0.0860978)
(0.992513 1 -0.0861498)
(0.992699 1 -0.0862006)
(0.99288 1 -0.0862501)
(0.993057 1 -0.0862982)
(0.993228 1 -0.086345)
(0.993395 1 -0.0863906)
(0.993558 1 -0.0864348)
(0.993715 1 -0.0864777)
(0.993867 1 -0.0865193)
(0.994015 1 -0.0865596)
(0.994158 1 -0.0865986)
(0.994296 1 -0.0866363)
(0.994429 1 -0.0866726)
(0.994557 1 -0.0867077)
(0.994681 1 -0.0867414)
(0.994799 1 -0.0867738)
(0.994913 1 -0.0868049)
(0.995022 1 -0.0868347)
(0.995126 1 -0.0868632)
(0.995225 1 -0.0868903)
(0.99532 1 -0.0869161)
(0.99541 1 -0.0869406)
(0.995494 1 -0.0869638)
(0.995574 1 -0.0869856)
(0.99565 1 -0.0870062)
(0.99572 1 -0.0870254)
(0.995785 1 -0.0870433)
(0.995846 1 -0.0870598)
(0.995902 1 -0.0870751)
(0.995952 1 -0.087089)
(0.995998 1 -0.0871016)
(0.99604 1 -0.0871129)
(0.996076 1 -0.0871228)
(0.996108 1 -0.0871314)
(0.996134 1 -0.0871387)
(0.996156 1 -0.0871447)
(0.996173 1 -0.0871493)
(0.996185 1 -0.0871526)
(0.996192 1 -0.0871546)
(0.996192 1 -0.0871555)
(0.996185 1 -0.0871562)
(0.996172 1 -0.0871574)
(0.996155 1 -0.087159)
(0.996132 1 -0.0871611)
(0.996105 1 -0.0871636)
(0.996072 1 -0.0871667)
(0.996035 1 -0.0871701)
(0.995992 1 -0.0871741)
(0.995945 1 -0.0871785)
(0.995892 1 -0.0871833)
(0.995835 1 -0.0871887)
(0.995772 1 -0.0871945)
(0.995704 1 -0.0872007)
(0.995632 1 -0.0872074)
(0.995554 1 -0.0872146)
(0.995472 1 -0.0872223)
(0.995384 1 -0.0872304)
(0.995292 1 -0.0872389)
(0.995194 1 -0.0872479)
(0.995092 1 -0.0872574)
(0.994984 1 -0.0872674)
(0.994872 1 -0.0872778)
(0.994754 1 -0.0872886)
(0.994632 1 -0.0872999)
(0.994504 1 -0.0873117)
(0.994372 1 -0.0873239)
(0.994234 1 -0.0873366)
(0.994092 1 -0.0873498)
(0.993945 1 -0.0873633)
(0.993792 1 -0.0873774)
(0.993635 1 -0.0873919)
(0.993473 1 -0.0874069)
(0.993305 1 -0.0874223)
(0.993133 1 -0.0874381)
(0.992956 1 -0.0874544)
(0.992773 1 -0.0874712)
(0.992586 1 -0.0874884)
(0.992394 1 -0.0875061)
(0.992197 1 -0.0875242)
(0.991995 1 -0.0875427)
(0.991788 1 -0.0875617)
(0.991576 1 -0.0875812)
(0.991359 1 -0.0876011)
(0.991137 1 -0.0876214)
(0.99091 1 -0.0876422)
(0.990678 1 -0.0876634)
(0.990441 1 -0.087685)
(0.9902 1 -0.0877071)
(0.989953 1 -0.0877296)
(0.989701 1 -0.0877526)
(0.989445 1 -0.087776)
(0.989183 1 -0.0877999)
(0.988917 1 -0.0878241)
(0.988645 1 -0.0878488)
(0.988369 1 -0.087874)
(0.988088 1 -0.0878996)
(0.987802 1 -0.0879256)
(0.987511 1 -0.087952)
(0.987215 1 -0.0879788)
(0.986914 1 -0.0880061)
(0.986608 1 -0.0880338)
(0.986297 1 -0.0880619)
(0.985982 1 -0.0880905)
(0.985661 1 -0.0881194)
(0.985336 1 -0.0881488)
(0.985006 1 -0.0881786)
(0.98467 1 -0.0882089)
(0.98433 1 -0.0882395)
(0.983985 1 -0.0882706)
(0.983636 1 -0.088302)
(0.983281 1 -0.0883339)
(0.982921 1 -0.0883662)
(0.982557 1 -0.0883989)
(0.982188 1 -0.088432)
(0.981813 1 -0.0884655)
(0.981434 1 -0.0884994)
(0.98105 1 -0.0885337)
(0.980662 1 -0.0885684)
(0.980268 1 -0.0886035)
(0.97987 1 -0.088639)
(0.979466 1 -0.0886749)
(0.979058 1 -0.0887112)
(0.978646 1 -0.0887479)
(0.978228 1 -0.0887849)
(0.977805 1 -0.0888224)
(0.977378 1 -0.0888603)
(0.976946 1 -0.0888985)
(0.976509 1 -0.0889371)
(0.976067 1 -0.0889761)
(0.97562 1 -0.0890155)
(0.975169 1 -0.0890553)
(0.974713 1 -0.0890954)
(0.974252 1 -0.0891359)
(0.973786 1 -0.0891768)
(0.973315 1 -0.0892181)
(0.97284 1 -0.0892597)
(0.97236 1 -0.0893017)
(0.971875 1 -0.089344)
(0.971385 1 -0.0893868)
(0.970891 1 -0.0894299)
(0.970392 1 -0.0894733)
(0.969888 1 -0.0895171)
(0.96938 1 -0.0895613)
(0.968866 1 -0.0896058)
(0.968348 1 -0.0896507)
(0.967826 1 -0.0896959)
(0.967298 1 -0.0897414)
(0.966766 1 -0.0897873)
(0.966229 1 -0.0898336)
(0.965688 1 -0.0898802)
(0.965141 1 -0.0899272)
(0.96459 1 -0.0899744)
(0.964035 1 -0.090022)
(0.963474 1 -0.09007)
(0.962909 1 -0.0901183)
(0.96234 1 -0.0901669)
(0.961765 1 -0.0902158)
(0.961186 1 -0.0902651)
(0.960603 1 -0.0903146)
(0.960014 1 -0.0903646)
(0.959422 1 -0.0904148)
(0.958824 1 -0.0904653)
(0.958222 1 -0.0905162)
(0.957615 1 -0.0905674)
(0.957004 1 -0.0906188)
(0.956388 1 -0.0906706)
(0.955767 1 -0.0907227)
(0.955142 1 -0.0907751)
(0.954512 1 -0.0908278)
(0.953878 1 -0.0908808)
(0.953239 1 -0.0909341)
(0.952595 1 -0.0909877)
(0.951947 1 -0.0910416)
(0.951295 1 -0.0910957)
(0.950638 1 -0.0911502)
(0.949976 1 -0.0912049)
(0.94931 1 -0.09126)
(0.948639 1 -0.0913153)
(0.947964 1 -0.0913709)
(0.947284 1 -0.0914267)
(0.946599 1 -0.0914828)
(0.945911 1 -0.0915392)
(0.945217 1 -0.0915959)
(0.94452 1 -0.0916529)
(0.943817 1 -0.0917101)
(0.943111 1 -0.0917675)
(0.942399 1 -0.0918253)
(0.941684 1 -0.0918832)
(0.940964 1 -0.0919415)
(0.940239 1 -0.092)
(0.93951 1 -0.0920587)
(0.938777 1 -0.0921177)
(0.938039 1 -0.0921769)
(0.937297 1 -0.0922364)
(0.93655 1 -0.0922961)
(0.935799 1 -0.0923561)
(0.935043 1 -0.0924163)
(0.934283 1 -0.0924767)
(0.933519 1 -0.0925373)
(0.932751 1 -0.0925982)
(0.931978 1 -0.0926593)
(0.9312 1 -0.0927206)
(0.930419 1 -0.0927822)
(0.929633 1 -0.0928439)
(0.928842 1 -0.0929059)
(0.928048 1 -0.0929681)
(0.927249 1 -0.0930305)
(0.926446 1 -0.0930931)
(0.925638 1 -0.0931559)
(0.924826 1 -0.0932189)
(0.92401 1 -0.0932821)
(0.92319 1 -0.0933456)
(0.922365 1 -0.0934092)
(0.921536 1 -0.093473)
(0.920703 1 -0.0935369)
(0.919866 1 -0.0936011)
(0.919024 1 -0.0936655)
(0.918178 1 -0.09373)
(0.917328 1 -0.0937947)
(0.916474 1 -0.0938596)
(0.915615 1 -0.0939247)
(0.914753 1 -0.0939899)
(0.913886 1 -0.0940553)
(0.913015 1 -0.0941209)
(0.91214 1 -0.0941867)
(0.911261 1 -0.0942526)
(0.910377 1 -0.0943186)
(0.90949 1 -0.0943848)
(0.908598 1 -0.0944512)
(0.907702 1 -0.0945177)
(0.906802 1 -0.0945844)
(0.905898 1 -0.0946512)
(0.90499 1 -0.0947182)
(0.904078 1 -0.0947853)
(0.903161 1 -0.0948525)
(0.902241 1 -0.0949199)
(0.901317 1 -0.0949874)
(0.900388 1 -0.095055)
(0.899456 1 -0.0951228)
(0.898519 1 -0.0951907)
(0.897579 1 -0.0952587)
(0.896634 1 -0.0953268)
(0.895686 1 -0.095395)
(0.894733 1 -0.0954634)
(0.893777 1 -0.0955319)
(0.892816 1 -0.0956004)
(0.891852 1 -0.0956691)
(0.890884 1 -0.0957379)
(0.889911 1 -0.0958068)
(0.888935 1 -0.0958758)
(0.887955 1 -0.0959449)
(0.886971 1 -0.096014)
(0.885983 1 -0.0960833)
(0.884991 1 -0.0961526)
(0.883995 1 -0.0962221)
(0.882996 1 -0.0962916)
(0.881992 1 -0.0963612)
(0.880985 1 -0.0964309)
(0.879974 1 -0.0965006)
(0.878959 1 -0.0965705)
(0.87794 1 -0.0966404)
(0.876918 1 -0.0967103)
(0.875891 1 -0.0967804)
(0.874861 1 -0.0968504)
(0.873827 1 -0.0969206)
(0.87279 1 -0.0969908)
(0.871748 1 -0.0970611)
(0.870703 1 -0.0971314)
(0.869654 1 -0.0972017)
(0.868601 1 -0.0972721)
(0.867545 1 -0.0973426)
(0.866485 1 -0.097413)
(0.865421 1 -0.0974836)